<?xml version="1.0" encoding="UTF-8"?>

<!-- generated on 04/09/19 16:18:47 by Eclipse SUMO netgenerate Version 1.1.0
<configuration xmlns:xsi="http://www.w3.org/2001/XMLSchema-instance" xsi:noNamespaceSchemaLocation="http://sumo.dlr.de/xsd/netgenerateConfiguration.xsd">

    <spider_network>
        <spider value="true"/>
        <spider.arm-number value="15"/>
        <spider.circle-number value="15"/>
        <spider.space-radius value="25"/>
        <spider.omit-center value="true"/>
    </spider_network>

    <processing>
        <lefthand value="true"/>
    </processing>

</configuration>
-->

<net version="1.1" junctionCornerDetail="5" lefthand="true" limitTurnSpeed="5.50" xmlns:xsi="http://www.w3.org/2001/XMLSchema-instance" xsi:noNamespaceSchemaLocation="http://sumo.dlr.de/xsd/net_file.xsd">

    <location netOffset="366.81,372.95" convBoundary="0.00,-0.00,741.81,745.89" origBoundary="-366.81,-372.95,375.00,372.95" projParameter="!"/>

    <edge id=":B1_0" function="internal">
        <lane id=":B1_0_0" index="0" speed="6.32" length="7.10" shape="397.64,371.35 395.60,371.11 394.04,370.42 392.94,369.25 392.31,367.63"/>
    </edge>
    <edge id=":B1_1" function="internal">
        <lane id=":B1_1_0" index="0" speed="7.87" length="11.51" shape="397.64,371.35 394.44,371.74 391.96,372.91 390.21,374.86 389.18,377.60"/>
    </edge>
    <edge id=":B1_2" function="internal">
        <lane id=":B1_2_0" index="0" speed="3.65" length="4.67" shape="397.64,371.35 396.44,372.15 396.04,372.95 396.44,373.75 397.64,374.55"/>
    </edge>
    <edge id=":B1_3" function="internal">
        <lane id=":B1_3_0" index="0" speed="6.32" length="7.10" shape="392.31,378.26 392.94,376.64 394.04,375.48 395.60,374.78 397.64,374.55"/>
    </edge>
    <edge id=":B1_4" function="internal">
        <lane id=":B1_4_0" index="0" speed="13.89" length="10.77" shape="392.31,378.26 392.90,375.23 393.09,372.95 392.90,370.66 392.31,367.63"/>
    </edge>
    <edge id=":B1_5" function="internal">
        <lane id=":B1_5_0" index="0" speed="3.65" length="2.34" shape="392.31,378.26 391.78,376.92 391.08,376.37"/>
    </edge>
    <edge id=":B1_9" function="internal">
        <lane id=":B1_9_0" index="0" speed="3.65" length="2.34" shape="391.08,376.37 390.21,376.59 389.18,377.60"/>
    </edge>
    <edge id=":B1_6" function="internal">
        <lane id=":B1_6_0" index="0" speed="13.89" length="9.43" shape="389.18,368.29 389.72,371.03 389.91,372.95 389.72,374.86 389.18,377.60"/>
    </edge>
    <edge id=":B1_7" function="internal">
        <lane id=":B1_7_0" index="0" speed="7.87" length="4.77" shape="389.18,368.29 390.21,371.03 391.44,372.40"/>
    </edge>
    <edge id=":B1_8" function="internal">
        <lane id=":B1_8_0" index="0" speed="3.65" length="2.34" shape="389.18,368.29 390.21,369.30 391.08,369.52"/>
    </edge>
    <edge id=":B1_10" function="internal">
        <lane id=":B1_10_0" index="0" speed="7.87" length="6.75" shape="391.44,372.40 391.96,372.98 394.44,374.15 397.64,374.55"/>
    </edge>
    <edge id=":B1_11" function="internal">
        <lane id=":B1_11_0" index="0" speed="3.65" length="2.34" shape="391.08,369.52 391.78,368.97 392.31,367.63"/>
    </edge>
    <edge id=":B10_0" function="internal">
        <lane id=":B10_0_0" index="0" speed="6.32" length="7.10" shape="349.30,353.65 347.83,354.60 346.26,354.89 344.59,354.54 342.80,353.53"/>
    </edge>
    <edge id=":B10_1" function="internal">
        <lane id=":B10_1_0" index="0" speed="13.89" length="10.77" shape="349.30,353.65 347.04,355.76 345.54,357.50 344.36,359.46 343.04,362.26"/>
    </edge>
    <edge id=":B10_2" function="internal">
        <lane id=":B10_2_0" index="0" speed="3.65" length="2.34" shape="349.30,353.65 348.94,355.05 349.18,355.91"/>
    </edge>
    <edge id=":B10_9" function="internal">
        <lane id=":B10_9_0" index="0" speed="3.65" length="2.34" shape="349.18,355.91 350.01,356.24 351.44,356.03"/>
    </edge>
    <edge id=":B10_3" function="internal">
        <lane id=":B10_3_0" index="0" speed="13.89" length="9.43" shape="345.97,363.56 347.14,361.03 348.12,359.37 349.39,357.92 351.44,356.03"/>
    </edge>
    <edge id=":B10_4" function="internal">
        <lane id=":B10_4_0" index="0" speed="7.87" length="4.77" shape="345.97,363.56 346.75,360.74 346.56,358.91"/>
    </edge>
    <edge id=":B10_5" function="internal">
        <lane id=":B10_5_0" index="0" speed="3.65" length="2.34" shape="345.97,363.56 345.73,362.14 345.16,361.45"/>
    </edge>
    <edge id=":B10_10" function="internal">
        <lane id=":B10_10_0" index="0" speed="7.87" length="6.75" shape="346.56,358.91 346.48,358.13 345.16,355.73 342.80,353.53"/>
    </edge>
    <edge id=":B10_11" function="internal">
        <lane id=":B10_11_0" index="0" speed="3.65" length="2.34" shape="345.16,361.45 344.26,361.49 343.04,362.26"/>
    </edge>
    <edge id=":B10_6" function="internal">
        <lane id=":B10_6_0" index="0" speed="6.32" length="7.10" shape="340.92,356.12 342.43,357.50 343.29,358.99 343.49,360.57 343.04,362.26"/>
    </edge>
    <edge id=":B10_7" function="internal">
        <lane id=":B10_7_0" index="0" speed="7.87" length="11.51" shape="340.92,356.12 343.74,357.68 346.43,358.19 349.00,357.64 351.44,356.03"/>
    </edge>
    <edge id=":B10_8" function="internal">
        <lane id=":B10_8_0" index="0" speed="3.65" length="4.67" shape="340.92,356.12 342.36,356.18 343.16,355.76 343.30,354.88 342.80,353.53"/>
    </edge>
    <edge id=":B11_0" function="internal">
        <lane id=":B11_0_0" index="0" speed="6.32" length="7.10" shape="358.66,348.20 356.94,348.47 355.38,348.10 353.99,347.09 352.78,345.45"/>
    </edge>
    <edge id=":B11_1" function="internal">
        <lane id=":B11_1_0" index="0" speed="13.89" length="10.77" shape="358.66,348.20 355.74,349.21 353.66,350.18 351.78,351.49 349.45,353.52"/>
    </edge>
    <edge id=":B11_2" function="internal">
        <lane id=":B11_2_0" index="0" speed="3.65" length="2.34" shape="358.66,348.20 357.77,349.33 357.63,350.21"/>
    </edge>
    <edge id=":B11_9" function="internal">
        <lane id=":B11_9_0" index="0" speed="3.65" length="2.34" shape="357.63,350.21 358.26,350.85 359.65,351.24"/>
    </edge>
    <edge id=":B11_3" function="internal">
        <lane id=":B11_3_0" index="0" speed="13.89" length="9.43" shape="351.59,355.90 353.68,354.06 355.25,352.94 357.01,352.14 359.65,351.24"/>
    </edge>
    <edge id=":B11_4" function="internal">
        <lane id=":B11_4_0" index="0" speed="7.87" length="4.77" shape="351.59,355.90 353.44,353.64 354.02,351.89"/>
    </edge>
    <edge id=":B11_5" function="internal">
        <lane id=":B11_5_0" index="0" speed="3.65" length="2.34" shape="351.59,355.90 351.94,354.50 351.71,353.64"/>
    </edge>
    <edge id=":B11_10" function="internal">
        <lane id=":B11_10_0" index="0" speed="7.87" length="6.75" shape="354.02,351.89 354.26,351.14 354.04,348.41 352.78,345.45"/>
    </edge>
    <edge id=":B11_11" function="internal">
        <lane id=":B11_11_0" index="0" speed="3.65" length="2.34" shape="351.71,353.64 350.87,353.31 349.45,353.52"/>
    </edge>
    <edge id=":B11_6" function="internal">
        <lane id=":B11_6_0" index="0" speed="6.32" length="7.10" shape="350.00,347.05 350.82,348.92 351.00,350.63 350.54,352.16 349.45,353.52"/>
    </edge>
    <edge id=":B11_7" function="internal">
        <lane id=":B11_7_0" index="0" speed="7.87" length="11.51" shape="350.00,347.05 351.94,349.62 354.20,351.18 356.77,351.72 359.65,351.24"/>
    </edge>
    <edge id=":B11_8" function="internal">
        <lane id=":B11_8_0" index="0" speed="3.65" length="4.67" shape="350.00,347.05 351.30,347.68 352.19,347.63 352.68,346.88 352.78,345.45"/>
    </edge>
    <edge id=":B12_0" function="internal">
        <lane id=":B12_0_0" index="0" speed="6.32" length="7.10" shape="369.43,347.02 367.75,346.57 366.47,345.60 365.62,344.11 365.17,342.12"/>
    </edge>
    <edge id=":B12_1" function="internal">
        <lane id=":B12_1_0" index="0" speed="13.89" length="10.77" shape="369.43,347.02 366.35,346.76 364.06,346.80 361.81,347.24 358.85,348.14"/>
    </edge>
    <edge id=":B12_2" function="internal">
        <lane id=":B12_2_0" index="0" speed="3.65" length="2.34" shape="369.43,347.02 368.15,347.69 367.67,348.45"/>
    </edge>
    <edge id=":B12_9" function="internal">
        <lane id=":B12_9_0" index="0" speed="3.65" length="2.34" shape="367.67,348.45 367.98,349.29 369.09,350.21"/>
    </edge>
    <edge id=":B12_3" function="internal">
        <lane id=":B12_3_0" index="0" speed="13.89" length="9.43" shape="359.84,351.18 362.50,350.35 364.39,349.97 366.32,349.95 369.09,350.21"/>
    </edge>
    <edge id=":B12_4" function="internal">
        <lane id=":B12_4_0" index="0" speed="7.87" length="4.77" shape="359.84,351.18 362.45,349.87 363.69,348.51"/>
    </edge>
    <edge id=":B12_5" function="internal">
        <lane id=":B12_5_0" index="0" speed="3.65" length="2.34" shape="359.84,351.18 360.73,350.05 360.87,349.16"/>
    </edge>
    <edge id=":B12_10" function="internal">
        <lane id=":B12_10_0" index="0" speed="7.87" length="6.75" shape="363.69,348.51 364.21,347.93 365.12,345.34 365.17,342.12"/>
    </edge>
    <edge id=":B12_11" function="internal">
        <lane id=":B12_11_0" index="0" speed="3.65" length="2.34" shape="360.87,349.16 360.24,348.53 358.85,348.14"/>
    </edge>
    <edge id=":B12_6" function="internal">
        <lane id=":B12_6_0" index="0" speed="6.32" length="7.10" shape="361.99,342.45 361.97,344.50 361.44,346.13 360.40,347.34 358.85,348.14"/>
    </edge>
    <edge id=":B12_7" function="internal">
        <lane id=":B12_7_0" index="0" speed="7.87" length="11.51" shape="361.99,342.45 362.71,345.59 364.14,347.93 366.27,349.47 369.09,350.21"/>
    </edge>
    <edge id=":B12_8" function="internal">
        <lane id=":B12_8_0" index="0" speed="3.65" length="4.67" shape="361.99,342.45 362.91,343.56 363.75,343.88 364.50,343.39 365.17,342.12"/>
    </edge>
    <edge id=":B13_0" function="internal">
        <lane id=":B13_0_0" index="0" speed="6.32" length="7.10" shape="374.81,343.13 373.96,344.99 372.81,346.27 371.37,346.95 369.63,347.05"/>
    </edge>
    <edge id=":B13_1" function="internal">
        <lane id=":B13_1_0" index="0" speed="7.87" length="11.51" shape="374.81,343.13 374.19,346.29 374.54,349.01 375.86,351.28 378.15,353.10"/>
    </edge>
    <edge id=":B13_2" function="internal">
        <lane id=":B13_2_0" index="0" speed="3.65" length="4.67" shape="374.81,343.13 375.20,344.52 375.84,345.15 376.72,345.01 377.85,344.12"/>
    </edge>
    <edge id=":B13_3" function="internal">
        <lane id=":B13_3_0" index="0" speed="6.32" length="7.10" shape="379.75,350.33 378.39,349.23 377.63,347.83 377.45,346.12 377.85,344.12"/>
    </edge>
    <edge id=":B13_4" function="internal">
        <lane id=":B13_4_0" index="0" speed="13.89" length="10.77" shape="379.75,350.33 377.04,348.84 374.93,347.95 372.70,347.43 369.63,347.05"/>
    </edge>
    <edge id=":B13_5" function="internal">
        <lane id=":B13_5_0" index="0" speed="3.65" length="2.34" shape="379.75,350.33 378.31,350.43 377.56,350.92"/>
    </edge>
    <edge id=":B13_9" function="internal">
        <lane id=":B13_9_0" index="0" speed="3.65" length="2.34" shape="377.56,350.92 377.51,351.81 378.15,353.10"/>
    </edge>
    <edge id=":B13_6" function="internal">
        <lane id=":B13_6_0" index="0" speed="13.89" length="9.43" shape="369.29,350.23 372.06,350.56 373.94,350.98 375.71,351.74 378.15,353.10"/>
    </edge>
    <edge id=":B13_7" function="internal">
        <lane id=":B13_7_0" index="0" speed="7.87" length="4.77" shape="369.29,350.23 372.21,350.10 373.90,349.35"/>
    </edge>
    <edge id=":B13_8" function="internal">
        <lane id=":B13_8_0" index="0" speed="3.65" length="2.34" shape="369.29,350.23 370.57,349.56 371.05,348.80"/>
    </edge>
    <edge id=":B13_10" function="internal">
        <lane id=":B13_10_0" index="0" speed="7.87" length="6.75" shape="373.90,349.35 374.61,349.03 376.49,347.04 377.85,344.12"/>
    </edge>
    <edge id=":B13_11" function="internal">
        <lane id=":B13_11_0" index="0" speed="3.65" length="2.34" shape="371.05,348.80 370.74,347.97 369.63,347.05"/>
    </edge>
    <edge id=":B14_0" function="internal">
        <lane id=":B14_0_0" index="0" speed="6.32" length="7.10" shape="386.25,348.96 384.71,350.32 383.15,351.02 381.55,351.05 379.92,350.43"/>
    </edge>
    <edge id=":B14_1" function="internal">
        <lane id=":B14_1_0" index="0" speed="7.87" length="11.51" shape="386.25,348.96 384.39,351.60 383.61,354.23 383.89,356.84 385.24,359.43"/>
    </edge>
    <edge id=":B14_2" function="internal">
        <lane id=":B14_2_0" index="0" speed="3.65" length="4.67" shape="386.25,348.96 386.04,350.39 386.36,351.22 387.23,351.46 388.62,351.10"/>
    </edge>
    <edge id=":B14_3" function="internal">
        <lane id=":B14_3_0" index="0" speed="6.32" length="7.10" shape="387.82,357.55 387.04,355.99 386.91,354.40 387.44,352.77 388.62,351.10"/>
    </edge>
    <edge id=":B14_4" function="internal">
        <lane id=":B14_4_0" index="0" speed="13.89" length="10.77" shape="387.82,357.55 385.96,355.08 384.39,353.41 382.57,352.03 379.92,350.43"/>
    </edge>
    <edge id=":B14_5" function="internal">
        <lane id=":B14_5_0" index="0" speed="3.65" length="2.34" shape="387.82,357.55 386.47,357.05 385.59,357.20"/>
    </edge>
    <edge id=":B14_9" function="internal">
        <lane id=":B14_9_0" index="0" speed="3.65" length="2.34" shape="385.59,357.20 385.18,357.99 385.24,359.43"/>
    </edge>
    <edge id=":B14_6" function="internal">
        <lane id=":B14_6_0" index="0" speed="13.89" length="9.43" shape="378.32,353.20 380.72,354.63 382.26,355.78 383.57,357.20 385.24,359.43"/>
    </edge>
    <edge id=":B14_7" function="internal">
        <lane id=":B14_7_0" index="0" speed="7.87" length="4.77" shape="378.32,353.20 381.04,354.27 382.88,354.28"/>
    </edge>
    <edge id=":B14_8" function="internal">
        <lane id=":B14_8_0" index="0" speed="3.65" length="2.34" shape="378.32,353.20 379.76,353.11 380.50,352.62"/>
    </edge>
    <edge id=":B14_10" function="internal">
        <lane id=":B14_10_0" index="0" speed="7.87" length="6.75" shape="382.88,354.28 383.66,354.28 386.19,353.22 388.62,351.10"/>
    </edge>
    <edge id=":B14_11" function="internal">
        <lane id=":B14_11_0" index="0" speed="3.65" length="2.34" shape="380.50,352.62 380.56,351.73 379.92,350.43"/>
    </edge>
    <edge id=":B15_0" function="internal">
        <lane id=":B15_0_0" index="0" speed="6.32" length="7.10" shape="394.32,358.94 392.37,359.56 390.65,359.56 389.18,358.94 387.94,357.71"/>
    </edge>
    <edge id=":B15_1" function="internal">
        <lane id=":B15_1_0" index="0" speed="7.87" length="11.51" shape="394.32,358.94 391.55,360.60 389.77,362.68 388.96,365.18 389.14,368.10"/>
    </edge>
    <edge id=":B15_2" function="internal">
        <lane id=":B15_2_0" index="0" speed="3.65" length="4.67" shape="394.32,358.94 393.55,360.16 393.51,361.06 394.20,361.62 395.62,361.87"/>
    </edge>
    <edge id=":B15_3" function="internal">
        <lane id=":B15_3_0" index="0" speed="6.32" length="7.10" shape="392.27,367.43 392.18,365.69 392.71,364.18 393.86,362.91 395.62,361.87"/>
    </edge>
    <edge id=":B15_4" function="internal">
        <lane id=":B15_4_0" index="0" speed="13.89" length="10.77" shape="392.27,367.43 391.57,364.42 390.82,362.25 389.71,360.25 387.94,357.71"/>
    </edge>
    <edge id=":B15_5" function="internal">
        <lane id=":B15_5_0" index="0" speed="3.65" length="2.34" shape="392.27,367.43 391.24,366.42 390.37,366.20"/>
    </edge>
    <edge id=":B15_9" function="internal">
        <lane id=":B15_9_0" index="0" speed="3.65" length="2.34" shape="390.37,366.20 389.67,366.76 389.14,368.10"/>
    </edge>
    <edge id=":B15_6" function="internal">
        <lane id=":B15_6_0" index="0" speed="13.89" length="9.43" shape="385.35,359.59 386.96,361.87 387.91,363.55 388.52,365.38 389.14,368.10"/>
    </edge>
    <edge id=":B15_7" function="internal">
        <lane id=":B15_7_0" index="0" speed="7.87" length="4.77" shape="385.35,359.59 387.40,361.68 389.09,362.43"/>
    </edge>
    <edge id=":B15_8" function="internal">
        <lane id=":B15_8_0" index="0" speed="3.65" length="2.34" shape="385.35,359.59 386.71,360.09 387.59,359.95"/>
    </edge>
    <edge id=":B15_10" function="internal">
        <lane id=":B15_10_0" index="0" speed="7.87" length="6.75" shape="389.09,362.43 389.80,362.75 392.54,362.81 395.62,361.87"/>
    </edge>
    <edge id=":B15_11" function="internal">
        <lane id=":B15_11_0" index="0" speed="3.65" length="2.34" shape="387.59,359.95 388.00,359.15 387.94,357.71"/>
    </edge>
    <edge id=":B2_0" function="internal">
        <lane id=":B2_0_0" index="0" speed="13.89" length="9.43" shape="389.14,377.80 388.52,380.51 387.91,382.34 386.96,384.02 385.35,386.30"/>
    </edge>
    <edge id=":B2_1" function="internal">
        <lane id=":B2_1_0" index="0" speed="7.87" length="4.77" shape="389.14,377.80 388.96,380.71 389.53,382.47"/>
    </edge>
    <edge id=":B2_2" function="internal">
        <lane id=":B2_2_0" index="0" speed="3.65" length="2.34" shape="389.14,377.80 389.67,379.14 390.37,379.69"/>
    </edge>
    <edge id=":B2_9" function="internal">
        <lane id=":B2_9_0" index="0" speed="7.87" length="6.75" shape="389.53,382.47 389.77,383.21 391.55,385.29 394.32,386.95"/>
    </edge>
    <edge id=":B2_10" function="internal">
        <lane id=":B2_10_0" index="0" speed="3.65" length="2.34" shape="390.37,379.69 391.24,379.47 392.27,378.46"/>
    </edge>
    <edge id=":B2_3" function="internal">
        <lane id=":B2_3_0" index="0" speed="6.32" length="7.10" shape="395.62,384.02 393.86,382.98 392.71,381.71 392.18,380.20 392.27,378.46"/>
    </edge>
    <edge id=":B2_4" function="internal">
        <lane id=":B2_4_0" index="0" speed="7.87" length="11.51" shape="395.62,384.02 392.54,383.08 389.80,383.14 387.40,384.22 385.35,386.30"/>
    </edge>
    <edge id=":B2_5" function="internal">
        <lane id=":B2_5_0" index="0" speed="3.65" length="4.67" shape="395.62,384.02 394.20,384.27 393.51,384.83 393.55,385.73 394.32,386.95"/>
    </edge>
    <edge id=":B2_6" function="internal">
        <lane id=":B2_6_0" index="0" speed="6.32" length="7.10" shape="387.94,388.18 389.18,386.95 390.65,386.33 392.37,386.33 394.32,386.95"/>
    </edge>
    <edge id=":B2_7" function="internal">
        <lane id=":B2_7_0" index="0" speed="13.89" length="10.77" shape="387.94,388.18 389.71,385.64 390.82,383.64 391.57,381.47 392.27,378.46"/>
    </edge>
    <edge id=":B2_8" function="internal">
        <lane id=":B2_8_0" index="0" speed="3.65" length="2.34" shape="387.94,388.18 388.00,386.74 387.59,385.94"/>
    </edge>
    <edge id=":B2_11" function="internal">
        <lane id=":B2_11_0" index="0" speed="3.65" length="2.34" shape="387.59,385.94 386.71,385.80 385.35,386.30"/>
    </edge>
    <edge id=":B3_0" function="internal">
        <lane id=":B3_0_0" index="0" speed="13.89" length="9.43" shape="385.24,386.46 383.57,388.69 382.26,390.11 380.72,391.26 378.32,392.69"/>
    </edge>
    <edge id=":B3_1" function="internal">
        <lane id=":B3_1_0" index="0" speed="7.87" length="4.77" shape="385.24,386.46 383.89,389.05 383.69,390.89"/>
    </edge>
    <edge id=":B3_2" function="internal">
        <lane id=":B3_2_0" index="0" speed="3.65" length="2.34" shape="385.24,386.46 385.18,387.90 385.59,388.69"/>
    </edge>
    <edge id=":B3_9" function="internal">
        <lane id=":B3_9_0" index="0" speed="7.87" length="6.75" shape="383.69,390.89 383.61,391.66 384.39,394.29 386.25,396.93"/>
    </edge>
    <edge id=":B3_10" function="internal">
        <lane id=":B3_10_0" index="0" speed="3.65" length="2.34" shape="385.59,388.69 386.47,388.84 387.82,388.34"/>
    </edge>
    <edge id=":B3_3" function="internal">
        <lane id=":B3_3_0" index="0" speed="6.32" length="7.10" shape="388.62,394.79 387.44,393.12 386.91,391.49 387.04,389.90 387.82,388.34"/>
    </edge>
    <edge id=":B3_4" function="internal">
        <lane id=":B3_4_0" index="0" speed="7.87" length="11.51" shape="388.62,394.79 386.19,392.67 383.66,391.61 381.04,391.62 378.32,392.69"/>
    </edge>
    <edge id=":B3_5" function="internal">
        <lane id=":B3_5_0" index="0" speed="3.65" length="4.67" shape="388.62,394.79 387.23,394.43 386.36,394.67 386.04,395.50 386.25,396.93"/>
    </edge>
    <edge id=":B3_6" function="internal">
        <lane id=":B3_6_0" index="0" speed="6.32" length="7.10" shape="379.92,395.46 381.55,394.84 383.15,394.88 384.71,395.57 386.25,396.93"/>
    </edge>
    <edge id=":B3_7" function="internal">
        <lane id=":B3_7_0" index="0" speed="13.89" length="10.77" shape="379.92,395.46 382.57,393.86 384.39,392.48 385.96,390.81 387.82,388.34"/>
    </edge>
    <edge id=":B3_8" function="internal">
        <lane id=":B3_8_0" index="0" speed="3.65" length="2.34" shape="379.92,395.46 380.56,394.17 380.50,393.27"/>
    </edge>
    <edge id=":B3_11" function="internal">
        <lane id=":B3_11_0" index="0" speed="3.65" length="2.34" shape="380.50,393.27 379.76,392.78 378.32,392.69"/>
    </edge>
    <edge id=":B4_0" function="internal">
        <lane id=":B4_0_0" index="0" speed="13.89" length="9.43" shape="378.15,392.79 375.71,394.15 373.94,394.92 372.06,395.34 369.29,395.66"/>
    </edge>
    <edge id=":B4_1" function="internal">
        <lane id=":B4_1_0" index="0" speed="7.87" length="4.77" shape="378.15,392.79 375.86,394.61 374.94,396.20"/>
    </edge>
    <edge id=":B4_2" function="internal">
        <lane id=":B4_2_0" index="0" speed="3.65" length="2.34" shape="378.15,392.79 377.51,394.08 377.56,394.97"/>
    </edge>
    <edge id=":B4_9" function="internal">
        <lane id=":B4_9_0" index="0" speed="7.87" length="6.75" shape="374.94,396.20 374.54,396.88 374.19,399.60 374.81,402.76"/>
    </edge>
    <edge id=":B4_10" function="internal">
        <lane id=":B4_10_0" index="0" speed="3.65" length="2.34" shape="377.56,394.97 378.31,395.47 379.75,395.56"/>
    </edge>
    <edge id=":B4_3" function="internal">
        <lane id=":B4_3_0" index="0" speed="6.32" length="7.10" shape="377.85,401.77 377.45,399.77 377.63,398.06 378.39,396.66 379.75,395.56"/>
    </edge>
    <edge id=":B4_4" function="internal">
        <lane id=":B4_4_0" index="0" speed="7.87" length="11.51" shape="377.85,401.77 376.49,398.85 374.61,396.86 372.21,395.79 369.29,395.66"/>
    </edge>
    <edge id=":B4_5" function="internal">
        <lane id=":B4_5_0" index="0" speed="3.65" length="4.67" shape="377.85,401.77 376.72,400.88 375.84,400.75 375.20,401.37 374.81,402.76"/>
    </edge>
    <edge id=":B4_6" function="internal">
        <lane id=":B4_6_0" index="0" speed="6.32" length="7.10" shape="369.63,398.85 371.37,398.94 372.81,399.63 373.96,400.90 374.81,402.76"/>
    </edge>
    <edge id=":B4_7" function="internal">
        <lane id=":B4_7_0" index="0" speed="13.89" length="10.77" shape="369.63,398.85 372.70,398.46 374.93,397.94 377.04,397.05 379.75,395.56"/>
    </edge>
    <edge id=":B4_8" function="internal">
        <lane id=":B4_8_0" index="0" speed="3.65" length="2.34" shape="369.63,398.85 370.74,397.93 371.05,397.09"/>
    </edge>
    <edge id=":B4_11" function="internal">
        <lane id=":B4_11_0" index="0" speed="3.65" length="2.34" shape="371.05,397.09 370.57,396.33 369.29,395.66"/>
    </edge>
    <edge id=":B5_0" function="internal">
        <lane id=":B5_0_0" index="0" speed="13.89" length="9.43" shape="369.09,395.68 366.32,395.94 364.39,395.92 362.50,395.54 359.84,394.71"/>
    </edge>
    <edge id=":B5_1" function="internal">
        <lane id=":B5_1_0" index="0" speed="7.87" length="4.77" shape="369.09,395.68 366.27,396.42 364.77,397.50"/>
    </edge>
    <edge id=":B5_2" function="internal">
        <lane id=":B5_2_0" index="0" speed="3.65" length="2.34" shape="369.09,395.68 367.98,396.61 367.67,397.44"/>
    </edge>
    <edge id=":B5_9" function="internal">
        <lane id=":B5_9_0" index="0" speed="7.87" length="6.75" shape="364.77,397.50 364.14,397.96 362.71,400.30 361.99,403.44"/>
    </edge>
    <edge id=":B5_10" function="internal">
        <lane id=":B5_10_0" index="0" speed="3.65" length="2.34" shape="367.67,397.44 368.15,398.20 369.43,398.87"/>
    </edge>
    <edge id=":B5_3" function="internal">
        <lane id=":B5_3_0" index="0" speed="6.32" length="7.10" shape="365.17,403.77 365.62,401.78 366.47,400.29 367.75,399.32 369.43,398.87"/>
    </edge>
    <edge id=":B5_4" function="internal">
        <lane id=":B5_4_0" index="0" speed="7.87" length="11.51" shape="365.17,403.77 365.12,400.55 364.21,397.97 362.45,396.02 359.84,394.71"/>
    </edge>
    <edge id=":B5_5" function="internal">
        <lane id=":B5_5_0" index="0" speed="3.65" length="4.67" shape="365.17,403.77 364.50,402.50 363.75,402.02 362.91,402.33 361.99,403.44"/>
    </edge>
    <edge id=":B5_6" function="internal">
        <lane id=":B5_6_0" index="0" speed="6.32" length="7.10" shape="358.85,397.76 360.40,398.55 361.44,399.76 361.97,401.39 361.99,403.44"/>
    </edge>
    <edge id=":B5_7" function="internal">
        <lane id=":B5_7_0" index="0" speed="13.89" length="10.77" shape="358.85,397.76 361.81,398.65 364.06,399.09 366.35,399.13 369.43,398.87"/>
    </edge>
    <edge id=":B5_8" function="internal">
        <lane id=":B5_8_0" index="0" speed="3.65" length="2.34" shape="358.85,397.76 360.24,397.37 360.87,396.73"/>
    </edge>
    <edge id=":B5_11" function="internal">
        <lane id=":B5_11_0" index="0" speed="3.65" length="2.34" shape="360.87,396.73 360.73,395.84 359.84,394.71"/>
    </edge>
    <edge id=":B6_0" function="internal">
        <lane id=":B6_0_0" index="0" speed="13.89" length="9.43" shape="359.65,394.65 357.01,393.75 355.25,392.95 353.68,391.83 351.59,390.00"/>
    </edge>
    <edge id=":B6_1" function="internal">
        <lane id=":B6_1_0" index="0" speed="7.87" length="4.77" shape="359.65,394.65 356.77,394.17 354.96,394.55"/>
    </edge>
    <edge id=":B6_2" function="internal">
        <lane id=":B6_2_0" index="0" speed="3.65" length="2.34" shape="359.65,394.65 358.26,395.04 357.63,395.68"/>
    </edge>
    <edge id=":B6_9" function="internal">
        <lane id=":B6_9_0" index="0" speed="7.87" length="6.75" shape="354.96,394.55 354.20,394.71 351.94,396.27 350.00,398.85"/>
    </edge>
    <edge id=":B6_10" function="internal">
        <lane id=":B6_10_0" index="0" speed="3.65" length="2.34" shape="357.63,395.68 357.77,396.56 358.66,397.69"/>
    </edge>
    <edge id=":B6_3" function="internal">
        <lane id=":B6_3_0" index="0" speed="6.32" length="7.10" shape="352.78,400.45 353.99,398.80 355.38,397.79 356.94,397.42 358.66,397.69"/>
    </edge>
    <edge id=":B6_4" function="internal">
        <lane id=":B6_4_0" index="0" speed="7.87" length="11.51" shape="352.78,400.45 354.04,397.48 354.26,394.75 353.44,392.25 351.59,390.00"/>
    </edge>
    <edge id=":B6_5" function="internal">
        <lane id=":B6_5_0" index="0" speed="3.65" length="4.67" shape="352.78,400.45 352.68,399.01 352.19,398.26 351.30,398.21 350.00,398.85"/>
    </edge>
    <edge id=":B6_6" function="internal">
        <lane id=":B6_6_0" index="0" speed="6.32" length="7.10" shape="349.45,392.37 350.54,393.73 351.00,395.26 350.82,396.97 350.00,398.85"/>
    </edge>
    <edge id=":B6_7" function="internal">
        <lane id=":B6_7_0" index="0" speed="13.89" length="10.77" shape="349.45,392.37 351.78,394.40 353.66,395.71 355.74,396.68 358.66,397.69"/>
    </edge>
    <edge id=":B6_8" function="internal">
        <lane id=":B6_8_0" index="0" speed="3.65" length="2.34" shape="349.45,392.37 350.87,392.58 351.71,392.26"/>
    </edge>
    <edge id=":B6_11" function="internal">
        <lane id=":B6_11_0" index="0" speed="3.65" length="2.34" shape="351.71,392.26 351.94,391.39 351.59,390.00"/>
    </edge>
    <edge id=":B7_0" function="internal">
        <lane id=":B7_0_0" index="0" speed="13.89" length="9.43" shape="351.44,389.86 349.39,387.97 348.12,386.52 347.14,384.86 345.97,382.33"/>
    </edge>
    <edge id=":B7_1" function="internal">
        <lane id=":B7_1_0" index="0" speed="7.87" length="4.77" shape="351.44,389.86 349.00,388.25 347.20,387.87"/>
    </edge>
    <edge id=":B7_2" function="internal">
        <lane id=":B7_2_0" index="0" speed="3.65" length="2.34" shape="351.44,389.86 350.01,389.65 349.18,389.98"/>
    </edge>
    <edge id=":B7_9" function="internal">
        <lane id=":B7_9_0" index="0" speed="7.87" length="6.75" shape="347.20,387.87 346.43,387.70 343.74,388.21 340.92,389.77"/>
    </edge>
    <edge id=":B7_10" function="internal">
        <lane id=":B7_10_0" index="0" speed="3.65" length="2.34" shape="349.18,389.98 348.94,390.84 349.30,392.24"/>
    </edge>
    <edge id=":B7_3" function="internal">
        <lane id=":B7_3_0" index="0" speed="6.32" length="7.10" shape="342.80,392.36 344.59,391.35 346.26,391.00 347.83,391.29 349.30,392.24"/>
    </edge>
    <edge id=":B7_4" function="internal">
        <lane id=":B7_4_0" index="0" speed="7.87" length="11.51" shape="342.80,392.36 345.16,390.16 346.48,387.76 346.75,385.15 345.97,382.33"/>
    </edge>
    <edge id=":B7_5" function="internal">
        <lane id=":B7_5_0" index="0" speed="3.65" length="4.67" shape="342.80,392.36 343.30,391.01 343.16,390.13 342.36,389.71 340.92,389.77"/>
    </edge>
    <edge id=":B7_6" function="internal">
        <lane id=":B7_6_0" index="0" speed="6.32" length="7.10" shape="343.04,383.63 343.49,385.32 343.29,386.91 342.43,388.39 340.92,389.77"/>
    </edge>
    <edge id=":B7_7" function="internal">
        <lane id=":B7_7_0" index="0" speed="13.89" length="10.77" shape="343.04,383.63 344.36,386.44 345.54,388.40 347.04,390.13 349.30,392.24"/>
    </edge>
    <edge id=":B7_8" function="internal">
        <lane id=":B7_8_0" index="0" speed="3.65" length="2.34" shape="343.04,383.63 344.26,384.40 345.16,384.44"/>
    </edge>
    <edge id=":B7_11" function="internal">